Version 4
SHEET 1 1040 680
WIRE 480 -64 336 -64
WIRE 912 -64 560 -64
WIRE 16 0 -112 0
WIRE 128 0 96 0
WIRE 224 0 208 0
WIRE 240 0 224 0
WIRE 336 0 336 -64
WIRE 336 0 320 0
WIRE 368 0 336 0
WIRE 464 0 448 0
WIRE 16 32 16 0
WIRE 592 48 576 48
WIRE 688 48 656 48
WIRE 816 48 800 48
WIRE 912 48 912 -64
WIRE 912 48 880 48
WIRE -112 80 -112 0
WIRE 16 128 16 112
WIRE 96 128 96 0
WIRE 96 128 16 128
WIRE 112 128 96 128
WIRE 16 144 16 128
WIRE 224 144 224 0
WIRE 224 144 176 144
WIRE 336 144 336 0
WIRE 368 144 336 144
WIRE 112 160 96 160
WIRE 464 160 464 0
WIRE 464 160 432 160
WIRE 480 160 464 160
WIRE 576 160 576 48
WIRE 576 160 560 160
WIRE 592 160 576 160
WIRE 368 176 336 176
WIRE 688 176 688 48
WIRE 688 176 656 176
WIRE 704 176 688 176
WIRE 800 176 800 48
WIRE 800 176 784 176
WIRE 816 176 800 176
WIRE 592 192 576 192
WIRE 912 192 912 48
WIRE 912 192 880 192
WIRE 944 192 912 192
WIRE 816 208 800 208
WIRE -112 272 -112 160
WIRE 96 272 96 160
WIRE 96 272 -112 272
WIRE 336 272 336 176
WIRE 336 272 96 272
WIRE 576 272 576 192
WIRE 576 272 336 272
WIRE 800 272 800 208
WIRE 800 272 576 272
WIRE -112 304 -112 272
WIRE 464 320 464 160
WIRE 944 320 464 320
WIRE 16 368 16 224
WIRE 688 368 688 176
WIRE 688 368 16 368
WIRE 944 368 688 368
WIRE 224 416 224 144
WIRE 944 416 224 416
WIRE -80 448 -96 448
WIRE 16 448 0 448
WIRE -96 464 -96 448
WIRE 0 464 0 448
FLAG 944 192 LP
IOPIN 944 192 Out
FLAG 944 368 BP
IOPIN 944 368 Out
FLAG 944 416 BR
IOPIN 944 416 Out
FLAG -96 544 0
FLAG 0 544 0
FLAG -96 448 VCC
FLAG 0 448 VEE
FLAG 144 112 VCC
FLAG 400 128 VCC
FLAG 624 144 VCC
FLAG 848 160 VCC
FLAG 144 176 VEE
FLAG 400 192 VEE
FLAG 624 208 VEE
FLAG 848 224 VEE
FLAG -112 304 0
FLAG 944 320 HP
IOPIN 944 320 Out
SYMBOL Opamps\\UniversalOpamp2 144 144 R0
SYMATTR InstName U1
SYMBOL res 0 16 R0
SYMATTR InstName R1
SYMATTR Value 50k
SYMBOL res 0 128 R0
SYMATTR InstName R2
SYMATTR Value 50k
SYMBOL voltage -112 64 R0
WINDOW 123 24 124 Left 2
WINDOW 39 0 0 Left 2
SYMATTR Value2 AC 1
SYMATTR InstName V1
SYMATTR Value ""
SYMBOL Opamps\\UniversalOpamp2 400 160 R0
SYMATTR InstName U2
SYMBOL res 224 -16 R90
WINDOW 0 0 56 VBottom 2
WINDOW 3 32 56 VTop 2
SYMATTR InstName R3
SYMATTR Value 50k
SYMBOL res 336 -16 R90
WINDOW 0 0 56 VBottom 2
WINDOW 3 32 56 VTop 2
SYMATTR InstName R4
SYMATTR Value 50k
SYMBOL res 464 -16 R90
WINDOW 0 0 56 VBottom 2
WINDOW 3 32 56 VTop 2
SYMATTR InstName R5
SYMATTR Value 10k
SYMBOL res 576 144 R90
WINDOW 0 0 56 VBottom 2
WINDOW 3 32 56 VTop 2
SYMATTR InstName R6
SYMATTR Value 50k
SYMBOL Opamps\\UniversalOpamp2 624 176 R0
SYMATTR InstName U3
SYMBOL cap 656 32 R90
WINDOW 0 0 32 VBottom 2
WINDOW 3 32 32 VTop 2
SYMATTR InstName C1
SYMATTR Value 10nF
SYMBOL res 800 160 R90
WINDOW 0 0 56 VBottom 2
WINDOW 3 32 56 VTop 2
SYMATTR InstName R7
SYMATTR Value 50k
SYMBOL Opamps\\UniversalOpamp2 848 192 R0
SYMATTR InstName U4
SYMBOL cap 880 32 R90
WINDOW 0 0 32 VBottom 2
WINDOW 3 32 32 VTop 2
SYMATTR InstName C2
SYMATTR Value 10nF
SYMBOL voltage -96 448 R0
WINDOW 123 0 0 Left 2
WINDOW 39 0 0 Left 2
SYMATTR InstName V2
SYMATTR Value 2.5V
SYMBOL voltage 0 448 R0
WINDOW 123 0 0 Left 2
WINDOW 39 0 0 Left 2
SYMATTR InstName V3
SYMATTR Value -2.5V
SYMBOL res 576 -80 R90
WINDOW 0 0 56 VBottom 2
WINDOW 3 32 56 VTop 2
SYMATTR InstName R8
SYMATTR Value 10k
TEXT 120 504 Left 2 !.ac oct 10 10 100k
